3、CSEE-VS(66-2023)/CLV.m
function mpc = CLV
%   MATPOWER 

%% MATPOWER Case Format : Version 2 
mpc.version = '2';

%%-----  Power Flow Data  -----%% 
%% system MVA base
mpc.baseMVA = 100; 

%% bus data 
%	bus_i	type	Pd	Qd	Gs	Bs	area	Vm	Va	baseKV	zone	Vmax	Vmin
mpc.bus = [
    1    1    0    0    0    0        1    1.013975356675317    -9.524122054250222    1    1    1.06    0.94;
    2    1    0    0    0    0        1    1.010555367156955    -10.08507075924688    1    1    1.06    0.94;
    3    1    0    0    0    0        1    1.011211569391123    -9.523417611230741    1    1    1.06    0.94;
    4    1    0    0    0    0        1    1.008607774766499    -9.808219219911253    1    1    1.06    0.94;
    5    1    0    0    0    0        1    1.008216896863378    -7.508814550395618    1    1    1.06    0.94;
    6    1    0    0    0    0        1    1.006093472198821    -7.323022623567691    1    1    1.06    0.94;
    7    1    0    0    0    0        1    1.002710138768008    -9.836057320057279    1    1    1.06    0.94;
    8    1    0    0    0    0        1    1.006118403064129    -7.859315059935818    1    1    1.06    0.94;
    9    1    0    0    0    0        1    1.005766946930658    -7.799415985555017    1    1    1.06    0.94;
    10    1    0    0    0    0        1    1.000262332388836    -9.591849723141687    1    1    1.06    0.94;
    11    1    0    0    0    0        1    1.005437709156494    -8.282262632157932    1    1    1.06    0.94;
    12    1    0    0    0    0        1    1.005063777785193    -9.241743562517765    1    1    1.06    0.94;
    13    1    0    0    0    600        1    1.008197929310279    -7.420071079732718    1    2    1.06    0.94;
    14    1    0    0    0    0        1    1.005746381764397    -6.902243735264214    1    1    1.06    0.94;
    15    1    0    0    0    0        1    1.002590300806091    -9.52910941890374    1    1    1.06    0.94;
    16    1    0    0    0    0        1    1.005562390192257    -7.520310283379649    1    1    1.06    0.94;
    17    1    0    0    0    0        1    1.005369025208503    -9.193813310759138    1    1    1.06    0.94;
    18    1    0    0    0    110        1    1.007774575688154    -6.03903127945969    1    1    1.06    0.94;
    19    1    0    0    0    0        1    1.010836543701841    -4.987223919161002    1    1    1.06    0.94;
    20    3    0    0    0    603.448486328125        1    1    0    1    2    1.06    0.94;
    21    1    0    0    0    0        1    1.058807668261032    -0.5916096580969294    1    1    1.06    0.94;
    22    1    0    0    0    0        1    1.056186401116288    -1.594975278834018    1    1    1.06    0.94;
    23    1    0    0    0    0        1    1.072350757161117    0.3735090946220914    1    1    1.06    0.94;
    24    1    0    0    0    0        1    1.070498967137664    -0.6095633032649337    1    1    1.06    0.94;
    25    1    0    0    0    0        1    1.086013101339397    -3.146181696719868    1    1    1.06    0.94;
    26    1    0    0    0    0        1    1.083414439189818    -4.099559057146821    1    1    1.06    0.94;
    27    1    0    0    0    0        1    1.056105907766642    -1.010747605454879    1    1    1.06    0.94;
    28    1    0    0    0    80        1    1.086706543634417    -0.0550363612439459    1    1    1.06    0.94;
    29    1    0    0    0    120        1    1.108686557276611    -4.675840112363074    1    1    1.06    0.94;
    30    1    0    0    0    30        1    1.059471611372784    2.090856285306387    1    1    1.06    0.94;
    31    1    0    0    0    10        1    1.070978973263479    2.993594679359299    1    1    1.06    0.94;
    32    1    0    0    0    30        1    1.086652978008122    -0.5964212753777639    1    1    1.06    0.94;
    33    1    356    123    0    0        1    1.025910685443141    -12.30255166462429    1    1    1.06    0.94;
    34    1    0    0    0    180        1    1.075872542494207    -12.63536990859781    1    2    1.06    0.94;
    35    1    408    149    0    0        1    1.018053071356693    -13.30375927935657    1    1    1.06    0.94;
    36    1    0    0    0    180        1    1.067212944932914    -13.68773995421821    1    2    1.06    0.94;
    37    1    339    122    0    0        1    1.023281938790823    -12.18312514027072    1    1    1.06    0.94;
    38    1    0    0    0    180        1    1.073112538403311    -12.50279238463229    1    2    1.06    0.94;
    39    1    452    165    0    0        1    1.013195326062246    -13.39777402706902    1    1    1.06    0.94;
    40    1    0    0    0    180        1    1.061865400864506    -13.82465482749395    1    2    1.06    0.94;
    41    1    506    162    0    0        1    1.012635980998697    -11.5321823492116    1    1    1.06    0.94;
    42    1    0    0    0    180        1    1.061360252762108    -12.00717487716321    1    2    1.06    0.94;
    43    1    475    154    0    0        1    1.006433992247378    -11.12769241518611    1    1    1.06    0.94;
    44    1    0    0    0    150        1    1.046147420212373    -11.57629660703556    1    2    1.06    0.94;
    45    1    457    157    0    0        1    1.008068078305725    -13.5057611397502    1    1    1.06    0.94;
    46    1    0    0    0    180        1    1.056602179610175    -13.94095903867484    1    2    1.06    0.94;
    47    1    470    160    0    0        1    1.011102642408679    -11.60939329439057    1    1    1.06    0.94;
    48    1    0    0    0    180        1    1.059755788676546    -12.05375055608931    1    2    1.06    0.94;
    49    1    399    115    0    0        1    1.012590731219819    -10.97787807211395    1    1    1.06    0.94;
    50    1    0    0    0    150        1    1.053160244218852    -11.35272653183701    1    2    1.06    0.94;
    51    1    509    166    0    0        1    1.003538358359605    -13.70807704658206    1    1    1.06    0.94;
    52    1    0    0    0    180        1    1.051718819267959    -14.19416967421284    1    2    1.06    0.94;
    53    1    427    142    0    0        1    1.009822053903986    -11.6940868902231    1    1    1.06    0.94;
    54    1    0    0    0    160        1    1.052775038024542    -12.09801358959353    1    2    1.06    0.94;
    55    1    107    32    0    0        1    1.010038015874188    -10.09544194069358    1    1    1.06    0.94;
    56    1    0    0    0    60        1    1.026016187147688    -10.19866922975949    1    2    1.06    0.94;
    57    1    0    0    0    0        1    0.9243273030250605    -3.159686503655089    1    2    1.06    0.94;
    58    1    0    0    0    0        1    0.9675220548561356    -4.58055852533957    1    2    1.06    0.94;
    59    1    0    0    0    0        1    0.9243273030250605    -3.159686503655089    1    2    1.06    0.94;
    60    1    0    0    0    0        1    0.9675220548561356    -4.58055852533957    1    2    1.06    0.94;
    61    1    0    0    0    0        1    1.059273999131973    3.197253374919959    1    1    1.06    0.94;
    62    1    0    0    0    0        1    1.059273999131973    3.197253374919959    1    1    1.06    0.94;
    63    1    0    0    0    0        1    1.059273999131973    3.197253374919959    1    1    1.06    0.94;
    64    2    0    0    0    -33.8023        1    1.00000002544045    -6.033073291754566    1    3    1.06    0.94;
    65    2    0    0    0    -33.8023        1    1.00000002544045    -6.033073291754566    1    3    1.06    0.94;
    66    1    0    0    0    0        1    1.056105907766642    -1.010747605454879    1    1    1.06    0.94;
    67    1    0    0    0    0        1    1.069997347117225    -0.0410706509622736    1    1    1.06    0.94;
    68    1    0    0    0    0        1    1.08311590074041    -4.654726663536511    1    1    1.06    0.94;
    69    1    0    0    0    0        1    1.024204891599116    -12.61261988526863    1    2    1.06    0.94;
    70    1    0    0    0    0        1    1.015961151016565    -13.66499080048062    1    2    1.06    0.94;
    71    1    0    0    0    0        1    1.021577472050811    -12.48004174038567    1    2    1.06    0.94;
    72    1    0    0    0    0        1    1.01087053164687    -13.80190318695729    1    2    1.06    0.94;
    73    1    0    0    0    0        1    1.010389625232608    -11.98442406812266    1    2    1.06    0.94;
    74    1    0    0    0    0        1    1.004280599570696    -11.55749651608775    1    2    1.06    0.94;
    75    1    0    0    0    0        1    1.005860039255191    -13.91820911372084    1    2    1.06    0.94;
    76    1    0    0    0    0        1    1.008862133178543    -12.0310001297471    1    2    1.06    0.94;
    77    1    0    0    0    0        1    1.011012892813468    -11.3339254348862    1    2    1.06    0.94;
    78    1    0    0    0    0        1    1.001211131278272    -14.17141951607103    1    2    1.06    0.94;
    79    1    0    0    0    0        1    1.007834306271962    -12.077902994949    1    2    1.06    0.94;
    80    1    0    0    0    0        1    1.009591841331356    -10.191331420978    1    2    1.06    0.94;
    81    3    0    0    0    0        1    1    0    1    1    1.06    0.94;
    82    2    0    0    0    0        1    0.9999999883705039    -3.412990226973973    1    1    1.06    0.94;
    83    2    0    0    0    0        1    0.9999999575453371    -1.816315611430011    1    1    1.06    0.94;
    84    2    0    0    0    0        1    0.9999999116470912    -1.57923577494891    1    1    1.06    0.94;
    85    1    0    0    0    0        1    1.08635198497476    0.7520246213921595    1    1    1.06    0.94;
    86    1    0    0    0    0        1    1.08635198497476    0.7520246213921595    1    1    1.06    0.94;
    87    1    0    0    0    0        1    1.08635198497476    0.7520246213921595    1    1    1.06    0.94;
    88    1    0    0    0    0        1    1.070664679927395    4.381829334997182    1    1    1.06    0.94;
    89    1    0    0    0    0        1    1.070664679927395    4.381829334997182    1    1    1.06    0.94;
    90    1    0    0    0    0        1    1.070664679927395    4.381829334997182    1    1    1.06    0.94;
];
%% generator data
%	bus	Pg	Qg	Qmax	Qmin	Vg	mBase	status	Pmax	Pmin	Pc1	Pc2	Qc1min	Qc1max	Qc2min	Qc2max	ramp_agc	ramp_10	ramp_30	ramp_q	apf
mpc.gen = [
  20  1600  0.0061  9999  0  1  100  1  0  0   0 0 0 0 0 0 0 0 0 0 0;
  61  200  0  0  0  1.059273999131973  100  1  400  0   0 0 0 0 0 0 0 0 0 0 0;
  62  200  0  0  0  1.059273999131973  100  1  400  0   0 0 0 0 0 0 0 0 0 0 0;
  63  200  0  0  0  1.059273999131973  100  1  400  0   0 0 0 0 0 0 0 0 0 0 0;
  81  452.5266  1.3706  300  -150  1  100  1  660  0   0 0 0 0 0 0 0 0 0 0 0;
  82  400  7.7738  300  -150  0.9999999883705039  100  1  660  0   0 0 0 0 0 0 0 0 0 0 0;
  83  300  -4.2736  300  -150  0.9999999575453371  100  1  660  0   0 0 0 0 0 0 0 0 0 0 0;
  84  400  7.1342  300  -150  0.9999999116470912  100  1  660  0   0 0 0 0 0 0 0 0 0 0 0;
  85  200  0  0  0  1.08635198497476  100  1  400  0   0 0 0 0 0 0 0 0 0 0 0;
  86  200  0  0  0  1.08635198497476  100  1  400  0   0 0 0 0 0 0 0 0 0 0 0;
  87  200  0  0  0  1.08635198497476  100  1  400  0   0 0 0 0 0 0 0 0 0 0 0;
  88  200  0  0  0  1.070664679927395  100  1  400  0   0 0 0 0 0 0 0 0 0 0 0;
  89  200  0  0  0  1.070664679927395  100  1  400  0   0 0 0 0 0 0 0 0 0 0 0;
  90  200  0  0  0  1.070664679927395  100  1  400  0   0 0 0 0 0 0 0 0 0 0 0;
57    -800    -252.3093566894531    9999  -9999  1  100  1  -9999  0   0 0 0 0 0 0 0 0 0 0 0;
58    787.1998901367188    -269.4923095703125    9999  -9999  1  100  1  -9999  0   0 0 0 0 0 0 0 0 0 0 0;
59    -800    -252.3093566894531    9999  -9999  1.059273999131973  100  1  -9999  0   0 0 0 0 0 0 0 0 0 0 0;
60    787.1998901367188    -269.4923095703125    9999  -9999  1.059273999131973  100  1  -9999  0   0 0 0 0 0 0 0 0 0 0 0;
];
%% branch data
%	fbus	tbus	r	x	b	rateA	rateB	rateC	ratio	angle	status	angmin	angmax   
mpc.branch = [
  2  1  0.00042  0.00912  0.0123  0  0  0  0    0  1  -360  360  ;
  3  2  0.00052  0.00448  0.0042  0  0  0  0    0  1  -360  360  ;
  4  1  0.00037  0.00422  0.00654  0  0  0  0    0  1  -360  360  ;
  4  2  0.0009700000000000001  0.00602  0.01156  0  0  0  0    0  1  -360  360  ;
  4  3  0.0008899999999999999  0.00103  0.00258  0  0  0  0    0  1  -360  360  ;
  4  7  0.00076  0.0091  0.008  0  0  0  0    0  1  -360  360  ;
  5  3  0.0005  0.0073  0.008999999999999999  0  0  0  0    0  1  -360  360  ;
  5  3  0.0005  0.0073  0.008999999999999999  0  0  0  0    0  1  -360  360  ;
  5  8  0.00028  0.00356  0.0028  0  0  0  0    0  1  -360  360  ;
  6  5  0.00027  0.00377  0.0042  0  0  0  0    0  1  -360  360  ;
  7  10  0.00081  0.008500000000000001  0.00642  0  0  0  0    0  1  -360  360  ;
  8  6  0.00019  0.00267  0.0038  0  0  0  0    0  1  -360  360  ;
  8  9  0.00019  0.0027  0.0034  0  0  0  0    0  1  -360  360  ;
  8  11  0.0004  0.0076  0.008999999999999999  0  0  0  0    0  1  -360  360  ;
  9  6  0.0004  0.0061  0.0168  0  0  0  0    0  1  -360  360  ;
  12  10  0.0009  0.00107  0.00314  0  0  0  0    0  1  -360  360  ;
  12  11  9.000000000000001e-05  0.00634  0.00702  0  0  0  0    0  1  -360  360  ;
  13  5  0  0.0001  0  0  0  0  0    0  1  -360  360  ;
  14  6  0.00012  0.00163  0.00612  0  0  0  0    0  1  -360  360  ;
  15  7  9.000000000000001e-05  0.00134  0.00502  0  0  0  0    0  1  -360  360  ;
  16  9  0.00012  0.00163  0.00612  0  0  0  0    0  1  -360  360  ;
  17  12  0.0001  0.0002  0.0002  0  0  0  0    0  1  -360  360  ;
  18  6  0.0003  0.0038  0.0368  0  0  0  0    0  1  -360  360  ;
  19  11  0.0007  0.0098  0.0368  0  0  0  0    0  1  -360  360  ;
  21  22  0.00186  0.01307  0.04824  1596  1596  1596  0    0  1  -360  360  ;
  21  22  0.00186  0.01307  0.04824  1596  1596  1596  0    0  1  -360  360  ;
  21  22  0.00186  0.01307  0.04824  1596  1596  1596  0    0  1  -360  360  ;
  21  22  0.00186  0.01307  0.04824  1596  1596  1596  0    0  1  -360  360  ;
  23  24  0.00186  0.01307  0.04824  1596  1596  1596  0    0  1  -360  360  ;
  23  24  0.00186  0.01307  0.04824  1596  1596  1596  0    0  1  -360  360  ;
  23  24  0.00186  0.01307  0.04824  1596  1596  1596  0    0  1  -360  360  ;
  23  24  0.00186  0.01307  0.04824  1596  1596  1596  0    0  1  -360  360  ;
  25  26  0.00186  0.01307  0.04824  1596  1596  1596  0    0  1  -360  360  ;
  25  26  0.00186  0.01307  0.04824  1596  1596  1596  0    0  1  -360  360  ;
  25  26  0.00186  0.01307  0.04824  1596  1596  1596  0    0  1  -360  360  ;
  25  26  0.00186  0.01307  0.04824  1596  1596  1596  0    0  1  -360  360  ;
  1  68  5e-05  0.01637    0    1500  1500  1500  0.9523809523809523    0  1  -360  360  
  13  58  0  0.006    0    3000  3000  3000  1.023089773995619    0  1  -360  360  
  13  60  0  0.006    0    3000  3000  3000  1.023089773995619    0  1  -360  360  
  18  64  0.00031  0.023    0    360  360  360  1    0  1  -360  360  
  18  65  0.00031  0.023    0    360  360  360  1    0  1  -360  360  
  18  66  5e-05  0.01637    0    1500  1500  1500  0.9523809523809523    0  1  -360  360  
  19  67  5e-05  0.01637    0    1500  1500  1500  0.9523809523809523    0  1  -360  360  
  20  57  0  0.006    0    3000  3000  3000  1.06141624813981    0  1  -360  360  
  20  59  0  0.006    0    3000  3000  3000  1.06141624813981    0  1  -360  360  
  21  30  0  0.035    0    300  300  300  1    0  1  -360  360  
  21  30  0  0.035    0    300  300  300  1    0  1  -360  360  
  21  30  0  0.035    0    300  300  300  1    0  1  -360  360  
  21  30  0  0.035    0    300  300  300  1    0  1  -360  360  
  22  66  4e-05  -0.0019    0    1500  1500  1500  1    0  1  -360  360  
  23  31  0  0.035    0    300  300  300  1    0  1  -360  360  
  23  31  0  0.035    0    300  300  300  1    0  1  -360  360  
  23  31  0  0.035    0    300  300  300  1    0  1  -360  360  
  23  31  0  0.035    0    300  300  300  1    0  1  -360  360  
  24  67  4e-05  -0.0019    0    1500  1500  1500  1    0  1  -360  360  
  25  32  0  0.035    0    300  300  300  1    0  1  -360  360  
  25  32  0  0.035    0    300  300  300  1    0  1  -360  360  
  25  32  0  0.035    0    300  300  300  1    0  1  -360  360  
  25  32  0  0.035    0    300  300  300  1    0  1  -360  360  
  26  68  4e-05  0.0019    0    1500  1500  1500  1    0  1  -360  360  
  27  66  0.0003  0.01922    0    450  450  450  1    0  1  -360  360  
  28  67  0.0003  0.01922    0    450  450  450  1    0  1  -360  360  
  29  68  0.0003  0.01922    0    450  450  450  1    0  1  -360  360  
  61  30  0  0.02167    0    300  300  300  1.000000015    0  1  -360  360  
  61  30  0  0.02167    0    300  300  300  1.000000015    0  1  -360  360  
  62  30  0  0.02167    0    300  300  300  1.000000015    0  1  -360  360  
  62  30  0  0.02167    0    300  300  300  1.000000015    0  1  -360  360  
  63  30  0  0.02167    0    300  300  300  1.000000015    0  1  -360  360  
  63  30  0  0.02167    0    300  300  300  1.000000015    0  1  -360  360  
  69  1  5e-05  0.0157    0    1000  1000  1000  1    0  1  -360  360  
  69  33  5e-05  -0.00158    0    1000  1000  1000  1    0  1  -360  360  
  69  34  0.00021  0.02668    0    360  360  360  1    0  1  -360  360  
  70  2  5e-05  0.0157    0    1000  1000  1000  1    0  1  -360  360  
  70  35  5e-05  -0.00158    0    1000  1000  1000  1    0  1  -360  360  
  70  36  0.00021  0.02668    0    360  360  360  1    0  1  -360  360  
  71  3  5e-05  0.0157    0    1000  1000  1000  1    0  1  -360  360  
  71  37  5e-05  -0.00158    0    1000  1000  1000  1    0  1  -360  360  
  71  38  0.00021  0.02668    0    360  360  360  1    0  1  -360  360  
  72  4  5e-05  0.0157    0    1000  1000  1000  1    0  1  -360  360  
  72  39  5e-05  -0.00158    0    1000  1000  1000  1    0  1  -360  360  
  72  40  0.00021  0.02668    0    360  360  360  1    0  1  -360  360  
  73  5  5e-05  0.0157    0    1000  1000  1000  1    0  1  -360  360  
  73  41  5e-05  -0.00158    0    1000  1000  1000  1    0  1  -360  360  
  73  42  0.00021  0.02668    0    360  360  360  1    0  1  -360  360  
  74  6  5e-05  0.0157    0    1000  1000  1000  1    0  1  -360  360  
  74  43  5e-05  -0.00158    0    1000  1000  1000  1    0  1  -360  360  
  74  44  0.00021  0.02668    0    360  360  360  1    0  1  -360  360  
  75  7  5e-05  0.0157    0    1000  1000  1000  1    0  1  -360  360  
  75  45  5e-05  -0.00158    0    1000  1000  1000  1    0  1  -360  360  
  75  46  0.00021  0.02668    0    360  360  360  1    0  1  -360  360  
  76  8  5e-05  0.0157    0    1000  1000  1000  1    0  1  -360  360  
  76  47  5e-05  -0.00158    0    1000  1000  1000  1    0  1  -360  360  
  76  48  0.00021  0.02668    0    360  360  360  1    0  1  -360  360  
  77  9  5e-05  0.0157    0    1000  1000  1000  1    0  1  -360  360  
  77  49  5e-05  -0.00158    0    1000  1000  1000  1    0  1  -360  360  
  77  50  0.00021  0.02668    0    360  360  360  1    0  1  -360  360  
  78  10  5e-05  0.0157    0    1000  1000  1000  1    0  1  -360  360  
  78  51  5e-05  -0.00158    0    1000  1000  1000  1    0  1  -360  360  
  78  52  0.00021  0.02668    0    360  360  360  1    0  1  -360  360  
  79  11  5e-05  0.0157    0    1000  1000  1000  1    0  1  -360  360  
  79  53  5e-05  -0.00158    0    1000  1000  1000  1    0  1  -360  360  
  79  54  0.00021  0.02668    0    360  360  360  1    0  1  -360  360  
  80  12  5e-05  0.0157    0    1000  1000  1000  1    0  1  -360  360  
  80  55  5e-05  -0.00158    0    1000  1000  1000  1    0  1  -360  360  
  80  56  0.00021  0.02668    0    360  360  360  1    0  1  -360  360  
  81  14  0.00026  0.02671    0    750  750  750  1    0  1  -360  360  
  82  15  0.00026  0.02671    0    750  750  750  1    0  1  -360  360  
  83  16  0.00028  0.03331    0    750  750  750  1    0  1  -360  360  
  84  17  0.00028  0.03331    0    750  750  750  1    0  1  -360  360  
  85  32  0  0.01389    0    450  450  450  0.9999999965217392    0  1  -360  360  
  86  32  0  0.01389    0    450  450  450  0.9999999965217392    0  1  -360  360  
  87  32  0  0.01389    0    450  450  450  0.9999999965217392    0  1  -360  360  
  88  31  0  0.01389    0    450  450  450  0.9999999965217392    0  1  -360  360  
  89  31  0  0.01389    0    450  450  450  0.9999999965217392    0  1  -360  360  
  90  31  0  0.01389    0    450  450  450  0.9999999965217392    0  1  -360  360  
];
%% busmap data
%	busname  bus_no 
mpc.map = {
'B01525.00',1;
'B02525.00',2;
'B03525.00',3;
'B04525.00',4;
'B05525.00',5;
'B06525.00',6;
'B07525.00',7;
'B08525.00',8;
'B09525.00',9;
'B10525.00',10;
'B11525.00',11;
'B12525.00',12;
'B13525.00',13;
'B14525.00',14;
'B15525.00',15;
'B16525.00',16;
'B17525.00',17;
'B18525.00',18;
'B19525.00',19;
'B21525.00',20;
'B22230.00',21;
'B23230.00',22;
'B24230.00',23;
'B25230.00',24;
'B26230.00',25;
'B27230.00',26;
'B2838.50',27;
'B2938.50',28;
'B3038.50',29;
'B3138.50',30;
'B3238.50',31;
'B3338.50',32;
'B34230.00',33;
'B3537.00',34;
'B36230.00',35;
'B3737.00',36;
'B38230.00',37;
'B3937.00',38;
'B40230.00',39;
'B4137.00',40;
'B42230.00',41;
'B4337.00',42;
'B44230.00',43;
'B4537.00',44;
'B46230.00',45;
'B4737.00',46;
'B48230.00',47;
'B4937.00',48;
'B50230.00',49;
'B5137.00',50;
'B52230.00',51;
'B5337.00',52;
'B54230.00',53;
'B5537.00',54;
'B56230.00',55;
'B5737.00',56;
'DN-01210.00',57;
'DN-02199.00',58;
'DP-01210.00',59;
'DP-02199.00',60;
'PV18-010.40',61;
'PV18-020.40',62;
'PV18-030.40',63;
'SC05-0120.00',64;
'SC05-0220.00',65;
'T3-011.00',66;
'T3-021.00',67;
'T3-031.00',68;
'T3-041.00',69;
'T3-051.00',70;
'T3-061.00',71;
'T3-071.00',72;
'T3-081.00',73;
'T3-091.00',74;
'T3-101.00',75;
'T3-111.00',76;
'T3-121.00',77;
'T3-131.00',78;
'T3-141.00',79;
'T3-151.00',80;
'TP14-0120.00',81;
'TP15-0120.00',82;
'TP16-0120.00',83;
'TP17-0120.00',84;
'WT01-010.69',85;
'WT01-020.69',86;
'WT01-030.69',87;
'WT19-010.69',88;
'WT19-020.69',89;
'WT19-030.69',90;
};
%% busmap data
%	busname  bus_no 
mpc.zonemap = {
'0',2;
'2R',3;
'FH',1;
};
